LTspice 24.1.8 for Windows
Circuit: C:\Users\Wellytom\Documents\GitHub\TCC\simulacoes\teste sistema.net
Start Time: Sat May 17 19:20:05 2025
solver = Normal
Maximum thread count: 12
tnom = 27
temp = 27
method = trap
WARNING: Node n006 is floating.

Direct Newton iteration for .op point succeeded.
Total elapsed time: 0.040 seconds.

Files loaded:
C:\Users\Wellytom\Documents\GitHub\TCC\simulacoes\teste sistema.net
C:\Users\Wellytom\AppData\Local\LTspice\lib\sub\opamp.sub

